/*--------------------------------*- C++ -*----------------------------------*\
  =========                 |
  \\      /  F ield         | OpenFOAM: The Open Source CFD Toolbox
   \\    /   O peration     | Website:  https://openfoam.org
    \\  /    A nd           | Version:  6
     \\/     M anipulation  |
\*---------------------------------------------------------------------------*/
FoamFile
{
    version     2.0;
    format      ascii;
    class       dictionary;
    object      fvSolution;
}
// * * * * * * * * * * * * * * * * * * * * * * * * * * * * * * * * * * * * * //

solvers
{
    "p|pFinal"
    {
        solver          GAMG;
        agglomerator	faceAreaPair;
        smoother	DICGaussSeidel;
	nCellsInCoarsestLevel 	5000;
	mergeLevels	1;
        tolerance       1e-7;
        relTol          0.0;
    }


    "U|UFinal"
    {
        solver          smoothSolver;
        smoother        symGaussSeidel;
        tolerance       1e-06;
        relTol          0;
    }
}


SIMPLE
{
    nNonOrthogonalCorrectors 2;

    residualControl
    {
        p               1e-5;
        U               1e-8;
    }
}

relaxationFactors
{
    fields
    {
        p               0.3;
    }
    equations
    {
        U               0.7;
    }
}

cache
{
    grad(U);
}

// ************************************************************************* //
