/*--------------------------------*- C++ -*----------------------------------*\
| =========                 |                                                 |
| \\      /  F ield         | OpenFOAM: The Open Source CFD Toolbox           |
|  \\    /   O peration     | Version:  dev                                   |
|   \\  /    A nd           | Web:      www.OpenFOAM.org                      |
|    \\/     M anipulation  |                                                 |
\*---------------------------------------------------------------------------*/
FoamFile
{
    version     2.0;
    format      ascii;
    class       dictionary;
    location    "system";
    object      fvSchemes;
}
// * * * * * * * * * * * * * * * * * * * * * * * * * * * * * * * * * * * * * //

ddtSchemes
{
    default         Euler;
}

gradSchemes
{
    default         cellLimited leastSquares 1; //cellLimited Gauss linear 0.33;
}

divSchemes
{
    div(rhoPhi,U)    bounded Gauss limitedLinearV 1;
    div(phi,alpha)   bounded Gauss vanLeer01;
    div(phirb,alpha) bounded Gauss interfaceCompression;
    div(((rho*nuEff)*dev2(T(grad(U))))) Gauss linear;
}

laplacianSchemes
{
    default         Gauss linear corrected;//limited corrected 0.33;
}

interpolationSchemes
{
    default         pointLinear;
}

snGradSchemes
{
    default         corrected;//limited corrected 0.33;
}

// ************************************************************************* //
