/*--------------------------------*- C++ -*----------------------------------*\
| =========                 |                                                 |
| \\      /  F ield         | OpenFOAM: The Open Source CFD Toolbox           |
|  \\    /   O peration     | Version:  2.2.0                                 |
|   \\  /    A nd           | Web:      www.OpenFOAM.org                      |
|    \\/     M anipulation  |                                                 |
\*---------------------------------------------------------------------------*/
FoamFile
{
    version     2.0;
    format      ascii;
    class       dictionary;
    location    "system";
    object      fvSolution;
}
// * * * * * * * * * * * * * * * * * * * * * * * * * * * * * * * * * * * * * //

solvers
{
    "alpha.water.*"
    {
        interfaceMethod "isoAdvector";
        isoFaceTol      1e-7;
        surfCellTol     1e-7;
        snapTol         1e-13;
        nAlphaBounds    4;
        clip            true;
        nAlphaCorr      1;
        nAlphaSubCycles 2;
        cAlpha          1;
        solver          smoothSolver;
        smoother        symGaussSeidel;
        tolerance       1e-8;
        relTol          0;
    }

    "pcorr.*"
    {
        solver          PCG;
        preconditioner  DIC;
        tolerance       1e-4;
        relTol          0;
    }

    "(p_rgh|pd)"
    {
        solver          GAMG;
        agglomerator	faceAreaPair;
        smoother	DICGaussSeidel;
	nCellsInCoarsestLevel 	5000;
	mergeLevels	1;
        tolerance       1e-7;
        relTol          0.025;
    }

    "(p_rghFinal|pdFinal)"
    {
        $p_rgh;
        tolerance       1e-7;
        relTol          0;
    }

    "(p_c|p_cFinal)"
    {
        $p_rgh;
        tolerance       1e-07;
        relTol          0;
    }

    "(U|UFinal)"
    {
        solver          PBiCG;
	preconditioner  DILU;
        //smoother        symGaussSeidel;
        tolerance       1e-06;
        relTol          0;
    }
}


PIMPLE
{
    momentumPredictor yes;
    nOuterCorrectors 1;
    nCorrectors      8;
    nNonOrthogonalCorrectors 2;
    pRefCell        0;
    pRefValue       0;
}

// ************************************************************************* //
