/*--------------------------------*- C++ -*----------------------------------*\
| =========                 |                                                 |
| \\      /  F ield         | OpenFOAM: The Open Source CFD Toolbox           |
|  \\    /   O peration     | Version:  5.x                                   |
|   \\  /    A nd           | Web:      www.OpenFOAM.org                      |
|    \\/     M anipulation  |                                                 |
\*---------------------------------------------------------------------------*/
FoamFile
{
    version     2.0;
    format      ascii;
    class       dictionary;
    object      changeDictionaryDict;
}
// * * * * * * * * * * * * * * * * * * * * * * * * * * * * * * * * * * * * * //


#include"twoCylindericalFibersScript.txt"


boundary
(
  screen              // patch name
        {
            type wall;
            faces
            (
                (0 1 7 6)
                (1 7 8 2)
                (7 6 12 13)
                (8 7 13 14)

                (20 21 27 26)
                (21 27 28 22)
                (27 26 32 33)
                (28 27 33 34)
            );
        }

  duplicate1              // patch name
        {
            type patch;
            faces
            (
                (6 0 3 9)
		(9 3 18 15)
		(6 9 15 12)
            );
        }

  duplicate2              // patch name
        {
            type patch;
            faces
            (
                (26 20 23 29)
		(29 23 38 35)
		(26 29 35 32)
            );
        }


);


mergePatchPairs
(
(duplicate1 duplicate2)
);
