/*--------------------------------*- C++ -*----------------------------------*\
  =========                 |
  \\      /  F ield         | OpenFOAM: The Open Source CFD Toolbox
   \\    /   O peration     | Website:  https://openfoam.org
    \\  /    A nd           | Version:  6
     \\/     M anipulation  |
\*---------------------------------------------------------------------------*/
FoamFile
{
    version     2.0;
    format      ascii;
    class       dictionary;
    object      createPatchDict;
}

// * * * * * * * * * * * * * * * * * * * * * * * * * * * * * * * * * * * * * //

pointSync false;

// Patches to create.
patches
(
    {
        // Name of new patch
        name PLANE2_0;

        // Type of new patch
        patchInfo
        {
            type symmetry;
        }

        // How to construct: either from 'patches' or 'set'
        constructFrom set;

        // If constructFrom = set : name of faceSet
        set f0;
    }

    {
        // Name of new patch
        name PLANE3_0;

        // Type of new patch
        patchInfo
        {
            type symmetry;
        }

        // How to construct: either from 'patches' or 'set'
        constructFrom set;

        // If constructFrom = set : name of faceSet
        set f1;
    }

    {
        // Name of new patch
        name PLANE1_0;

        // Type of new patch
        patchInfo
        {
            type symmetry;
        }

        // How to construct: either from 'patches' or 'set'
        constructFrom set;

        // If constructFrom = set : name of faceSet
        set f2;
    }

    {
        // Name of new patch
        name PLANE4_0;

        // Type of new patch
        patchInfo
        {
            type symmetry;
        }

        // How to construct: either from 'patches' or 'set'
        constructFrom set;

        // If constructFrom = set : name of faceSet
        set f3;
    }

    {
        // Name of new patch
        name PLANE5_0;

        // Type of new patch
        patchInfo
        {
            type symmetry;
        }

        // How to construct: either from 'patches' or 'set'
        constructFrom set;

        // If constructFrom = set : name of faceSet
        set f4;
    }

    {
        // Name of new patch
        name PLANE6_0;

        // Type of new patch
        patchInfo
        {
            type symmetry;
        }

        // How to construct: either from 'patches' or 'set'
        constructFrom set;

        // If constructFrom = set : name of faceSet
        set f5;
    }
);

// ************************************************************************* //
